LESXAJ
  --CCDC--060923    3D

 38 39  0  0  0  0  0  0  0  0999 V2000
    8.2286    8.1673    1.5152 C      0
    8.0400    6.5933    1.2257 C      0
    8.9302    6.3965    0.0139 C      0
   10.1389    7.3489    0.3018 C      0
   10.7712    7.4117   -0.4311 H      0
   10.5948    7.1605    1.1379 H      0
    9.1122    8.5985    0.3865 C      0
    8.4467    8.5922   -0.9154 C      0
    9.0022    9.0108   -1.5945 H      0
    7.5935    9.0464   -0.8777 H      0
    8.2571    6.9575   -1.2111 C      0
    7.3205    6.7063   -1.2534 H      0
    8.7026    6.6812   -2.0271 H      0
    7.3622    5.2139    3.1065 C      0
    6.1848    5.5467    3.0188 C      0
    5.9553    5.6702    2.0949 H      0
    6.0482    6.3693    3.4961 H      0
    5.6302    4.8602    3.3976 H      0
    5.2633    8.4143    0.6929 C      0
    4.7116    9.1238    0.3534 H      0
    4.7229    7.7968    1.1872 H      0
    5.6804    7.9559   -0.0439 H      0
    6.9479   10.9218    1.4705 C      0
    6.1497   11.4367    1.6106 H      0
    7.2361   11.0160    0.5613 H      0
    7.6380   11.2358    2.0610 H      0
    6.0691    8.9334    3.6185 C      0
    6.4369    9.6471    4.1428 H      0
    6.3895    8.0919    3.9504 H      0
    5.1116    8.9564    3.6701 H      0
    8.2959    5.7100    2.3074 N      0
    9.1112    5.4818    2.4537 H      0
    7.7471    4.2155    4.1297 O      0
    6.6009    9.1381    1.8247 Si     0
    9.1710    8.3956    3.0542 Cl     0
    9.2809    5.8397   -0.0693 H      0
    9.5748    9.2724    0.7314 H      0
    7.2238    6.5305    1.0779 H      0
  1  2  1
  2  3  1
  3  4  1
  4  5  1
  6  4  1
  7  1  1
  8  7  1
  9  8  1
 10  8  1
 11  3  1
 12 11  1
 13 11  1
 14 15  1
 15 16  1
 17 15  1
 18 15  1
 19 20  1
 21 19  1
 22 19  1
 23 24  1
 25 23  1
 26 23  1
 27 28  1
 29 27  1
 30 27  1
 31  2  1
 32 31  1
 33 14  2
 34  1  1
 35  1  1
 36  3  1
 37  7  1
 38  2  1
  4  7  1
  8 11  1
 14 31  1
 19 34  1
 23 34  1
 27 34  1
M  END
$$$$
